/*--------------------------------*- C++ -*----------------------------------*\
| =========                 |                                                 |
| \\      /  F ield         | OpenFOAM: The Open Source CFD Toolbox           |
|  \\    /   O peration     | Version:  2.4.0                                 |
|   \\  /    A nd           | Web:      www.OpenFOAM.org                      |
|    \\/     M anipulation  |                                                 |
\*---------------------------------------------------------------------------*/
FoamFile
{
    version     2.0;
    format      ascii;
    class       dictionary;
    location    "system";
    object      controlDict;
}
// * * * * * * * * * * * * * * * * * * * * * * * * * * * * * * * * * * * * * //

libs (
      "libOpenFOAM.so"
      "libsimpleSwakFunctionObjects.so"
      "libswakFunctionObjects.so"
      "libgroovyBC.so"
     );

application     SRFSimpleFoam;

startFrom       startTime;

startTime       0;

stopAt          endTime;

endTime         2000;

deltaT          1e-1;

writeControl    adjustableRunTime;

writeInterval   1;

purgeWrite      0;

writeFormat     ascii;

writePrecision  6;

writeCompression off;

timeFormat      general;

timePrecision   6;

runTimeModifiable true;

adjustTimeStep  yes;

maxCo           0.5;
maxAlphaCo      1;
maxDeltaT       1;

functions
{
    patchMassFlow
    {
        type patchExpression;
        accumulations (
            sum
        );
        patches (
            tube1_in
            tube2_out
        );
        expression "phi";
        verbose true;
    }
    
    massFlowAve
    {
        type patchExpression;
        variables ( "phiAve{patch'outlet}=sum(phi*area())/sum(area());");
        accumulations (
           min
           max
        );
        patches (
            tube2_out
        );
        expression "phiAve";
        verbose true;
    }
}

// ************************************************************************* //
