/*--------------------------------*- C++ -*----------------------------------*\
| =========                 |                                                 |
| \\      /  F ield         | OpenFOAM: The Open Source CFD Toolbox           |
|  \\    /   O peration     | Version:  4.0                                   |
|   \\  /    A nd           | Web:      www.OpenFOAM.org                      |
|    \\/     M anipulation  |                                                 |
\*---------------------------------------------------------------------------*/
FoamFile
{
    version     2.0;
    format      ascii;
    class       dictionary;
    location    "constant";
    object      SRFProperties;
}
// * * * * * * * * * * * * * * * * * * * * * * * * * * * * * * * * * * * * * //

SRFModel        rpm;

        origin        (0.25712 -0.752835 -0.014868);//(0.25712 -0.752835 -0.014868);
        axis          (0.235972 0 0.016501);//(0.021148 -0.752835 -0.031369);

rpmCoeffs
{
    rpm         4000;
}


// ************************************************************************* //
